Version 4
SHEET 1 2076 736
WIRE 1120 -320 704 -320
WIRE 704 -288 704 -320
WIRE 704 -192 704 -208
WIRE -528 -160 -800 -160
WIRE -384 -160 -528 -160
WIRE 1120 -112 1120 -320
WIRE 1568 -112 1408 -112
WIRE 1712 -112 1648 -112
WIRE 1632 -48 1616 -48
WIRE 1120 -32 1120 -112
WIRE 1264 -32 1120 -32
WIRE 1408 -32 1408 -112
WIRE 1408 -32 1344 -32
WIRE 1120 0 1120 -32
WIRE 1552 0 1536 0
WIRE 1616 0 1616 -48
WIRE 1408 16 1408 -32
WIRE 1504 16 1408 16
WIRE 1552 16 1552 0
WIRE 1584 16 1552 16
WIRE 1712 32 1712 -112
WIRE 1712 32 1648 32
WIRE 1872 32 1712 32
WIRE 2016 32 1872 32
WIRE 1536 48 1536 0
WIRE 1536 48 1408 48
WIRE 1584 48 1568 48
WIRE 1504 64 1504 16
WIRE 1568 64 1568 48
WIRE 1568 64 1504 64
WIRE 304 80 208 80
WIRE 432 80 384 80
WIRE 1536 80 1536 48
WIRE -800 96 -800 -160
WIRE 1120 112 1120 80
WIRE 1168 112 1120 112
WIRE 1264 112 1168 112
WIRE 1408 112 1408 48
WIRE 1408 112 1344 112
WIRE 1872 112 1872 32
WIRE -224 128 -240 128
WIRE -176 144 -304 144
WIRE 352 144 336 144
WIRE -240 160 -240 128
WIRE 1120 160 1120 112
WIRE -304 176 -304 144
WIRE -272 176 -304 176
WIRE 240 176 176 176
WIRE 336 176 336 144
WIRE 1536 176 1536 160
WIRE 1616 176 1616 64
WIRE 1616 176 1536 176
WIRE -176 192 -176 144
WIRE -176 192 -208 192
WIRE -128 192 -176 192
WIRE -80 192 -128 192
WIRE 208 192 208 80
WIRE 208 192 0 192
WIRE 240 192 240 176
WIRE 304 192 240 192
WIRE -800 208 -800 176
WIRE -384 208 -384 -160
WIRE -272 208 -384 208
WIRE 432 208 432 80
WIRE 432 208 368 208
WIRE 576 208 432 208
WIRE 944 208 576 208
WIRE 1056 208 1024 208
WIRE 1536 208 1536 176
WIRE 1872 208 1872 176
WIRE 208 224 208 192
WIRE 304 224 208 224
WIRE -240 256 -240 224
WIRE 240 256 240 192
WIRE 80 288 -256 288
WIRE 176 288 176 176
WIRE 176 288 160 288
WIRE 240 368 240 336
WIRE 336 368 336 240
WIRE 336 368 240 368
WIRE -496 384 -496 16
WIRE 1120 384 1120 256
WIRE 336 400 336 368
WIRE -496 480 -496 464
FLAG 352 144 PWR
FLAG 336 400 0
FLAG -496 16 PWR
FLAG -496 480 0
FLAG 576 208 ERROR
FLAG -256 288 SIG
FLAG -128 192 REF
FLAG 1120 384 0
FLAG 2016 32 SIG
FLAG 1536 208 0
FLAG 1632 -48 PWR
FLAG 1120 -112 TEST_PWR
FLAG 704 -192 0
FLAG 1168 112 SNS
FLAG -224 128 PWR
FLAG -240 256 0
FLAG 1872 208 0
FLAG -800 208 0
FLAG -528 -160 REF_V
SYMBOL voltage -496 368 R0
WINDOW 123 0 0 Left 0
WINDOW 39 0 0 Left 0
SYMATTR InstName V1
SYMATTR Value 12
SYMBOL OpAmps\\OP777 336 144 R0
SYMATTR InstName U1
SYMBOL res 224 240 R0
SYMATTR InstName R1
SYMATTR Value 10k
SYMBOL res 400 64 R90
WINDOW 0 0 56 VBottom 2
WINDOW 3 32 56 VTop 2
SYMATTR InstName R2
SYMATTR Value 10k
SYMBOL res 16 176 R90
WINDOW 0 0 56 VBottom 2
WINDOW 3 32 56 VTop 2
SYMATTR InstName R3
SYMATTR Value 10k
SYMBOL res 176 272 R90
WINDOW 0 0 56 VBottom 2
WINDOW 3 32 56 VTop 2
SYMATTR InstName R4
SYMATTR Value 10k
SYMBOL npn 1056 160 R0
SYMATTR InstName Q1
SYMATTR Value 2N2222
SYMBOL res 1104 -16 R0
SYMATTR InstName R7
SYMATTR Value 1
SYMBOL res 1040 192 R90
WINDOW 0 0 56 VBottom 2
WINDOW 3 32 56 VTop 2
SYMATTR InstName R8
SYMATTR Value 1k
SYMBOL OpAmps\\OP777 1616 -32 R0
SYMATTR InstName U2
SYMBOL res 1360 -48 R90
WINDOW 0 0 56 VBottom 2
WINDOW 3 32 56 VTop 2
SYMATTR InstName 10k
SYMATTR Value 10k
SYMBOL res 1360 96 R90
WINDOW 0 0 56 VBottom 2
WINDOW 3 32 56 VTop 2
SYMATTR InstName R10
SYMATTR Value 10k
SYMBOL res 1520 64 R0
SYMATTR InstName R11
SYMATTR Value 10k
SYMBOL res 1664 -128 R90
WINDOW 0 0 56 VBottom 2
WINDOW 3 32 56 VTop 2
SYMATTR InstName R12
SYMATTR Value 10k
SYMBOL voltage 704 -304 R0
WINDOW 123 0 0 Left 0
WINDOW 39 0 0 Left 0
SYMATTR InstName V2
SYMATTR Value SINE(11V 1V 70 0 0 0 40)
SYMBOL OpAmps\\OP777 -240 128 R0
SYMATTR InstName U3
SYMBOL cap 1856 112 R0
SYMATTR InstName C1
SYMATTR Value 10µ
SYMBOL voltage -800 80 R0
WINDOW 123 0 0 Left 0
WINDOW 39 0 0 Left 0
SYMATTR InstName V3
SYMATTR Value PULSE(0 12 0.01 0.001 0.001 0.01 0.02 5)
TEXT 142 464 Left 2 !.tran 0 0.125s 0 0.001
